@<TRIPOS>MOLECULE
*****
    5     4     1     0     0
SMALL
bcc


@<TRIPOS>ATOM
      1 F            0.9220    -0.0440    -0.0500 f          1 UNL      -0.250300
      2 C            2.2760    -0.0380    -0.0780 c3         1 UNL       0.393200
      3 F1           2.7000    -0.2880     1.1830 f          1 UNL      -0.250300
      4 H            2.6300    -0.8260    -0.7460 h2         1 UNL       0.053700
      5 H1           2.6300     0.9450    -0.3950 h2         1 UNL       0.053700
@<TRIPOS>BOND
     1     1     2 1   
     2     2     3 1   
     3     2     4 1   
     4     2     5 1   
@<TRIPOS>SUBSTRUCTURE
     1 UNL         1 TEMP              0 ****  ****    0 ROOT