@<TRIPOS>MOLECULE
*****
   38    37     1     0     0
SMALL
bcc


@<TRIPOS>ATOM
      1 C            1.0930    -0.0560    -0.1040 c3         1 UNL      -0.090100
      2 C1           0.5530     1.3610     0.0880 c3         1 UNL      -0.068700
      3 C2           1.0020     2.2560    -1.0680 c3         1 UNL      -0.090100
      4 C3          -0.9800     1.3640     0.1760 c3         1 UNL      -0.074400
      5 C4          -1.5510     0.5140     1.3330 c3         1 UNL      -0.066700
      6 C5          -1.1090     1.0600     2.6950 c3         1 UNL      -0.090100
      7 C6          -3.0860     0.4660     1.2710 c3         1 UNL      -0.074400
      8 C7          -3.6560    -0.1370    -0.0340 c3         1 UNL      -0.068700
      9 C8          -3.1840    -1.5760    -0.2600 c3         1 UNL      -0.089100
     10 C9          -5.1930    -0.0530    -0.0510 c3         1 UNL      -0.075400
     11 C10         -5.7390     1.3770     0.0630 c3         1 UNL      -0.080400
     12 C11         -5.2310     2.3030    -1.0340 c3         1 UNL      -0.092100
     13 H            0.6900    -0.5110    -1.0160 hc         1 UNL       0.032700
     14 H1           0.8320    -0.7070     0.7370 hc         1 UNL       0.032700
     15 H2           2.1830    -0.0510    -0.1730 hc         1 UNL       0.032700
     16 H3           0.9710     1.7820     1.0080 hc         1 UNL       0.046700
     17 H4           0.6330     1.8830    -2.0290 hc         1 UNL       0.032700
     18 H5           0.6310     3.2780    -0.9350 hc         1 UNL       0.032700
     19 H6           2.0950     2.2990    -1.1150 hc         1 UNL       0.032700
     20 H7          -1.3480     2.3930     0.2660 hc         1 UNL       0.041700
     21 H8          -1.3540     0.9920    -0.7850 hc         1 UNL       0.041700
     22 H9          -1.1880    -0.5090     1.2660 hc         1 UNL       0.049700
     23 H10         -1.4300     2.0950     2.8360 hc         1 UNL       0.032700
     24 H11         -1.5280     0.4560     3.5070 hc         1 UNL       0.032700
     25 H12         -0.0200     1.0210     2.8020 hc         1 UNL       0.032700
     26 H13         -3.4640    -0.1160     2.1230 hc         1 UNL       0.041200
     27 H14         -3.4500     1.4870     1.4080 hc         1 UNL       0.041200
     28 H15         -3.2990     0.4350    -0.8930 hc         1 UNL       0.051700
     29 H16         -3.4860    -2.2320     0.5610 hc         1 UNL       0.032700
     30 H17         -3.5960    -1.9760    -1.1930 hc         1 UNL       0.032700
     31 H18         -2.0940    -1.6270    -0.3560 hc         1 UNL       0.032700
     32 H19         -5.5640    -0.4940    -0.9860 hc         1 UNL       0.039700
     33 H20         -5.6040    -0.6590     0.7650 hc         1 UNL       0.039700
     34 H21         -6.8330     1.3410     0.0210 hc         1 UNL       0.039200
     35 H22         -5.4940     1.8040     1.0420 hc         1 UNL       0.039200
     36 H23         -5.5160     1.9250    -2.0200 hc         1 UNL       0.032033
     37 H24         -5.6520     3.3040    -0.9120 hc         1 UNL       0.032033
     38 H25         -4.1420     2.4110    -1.0100 hc         1 UNL       0.032033
@<TRIPOS>BOND
     1     1     2 1   
     2     2     3 1   
     3     2     4 1   
     4     4     5 1   
     5     5     6 1   
     6     5     7 1   
     7     7     8 1   
     8     8     9 1   
     9     8    10 1   
    10    10    11 1   
    11    11    12 1   
    12     1    13 1   
    13     1    14 1   
    14     1    15 1   
    15     2    16 1   
    16     3    17 1   
    17     3    18 1   
    18     3    19 1   
    19     4    20 1   
    20     4    21 1   
    21     5    22 1   
    22     6    23 1   
    23     6    24 1   
    24     6    25 1   
    25     7    26 1   
    26     7    27 1   
    27     8    28 1   
    28     9    29 1   
    29     9    30 1   
    30     9    31 1   
    31    10    32 1   
    32    10    33 1   
    33    11    34 1   
    34    11    35 1   
    35    12    36 1   
    36    12    37 1   
    37    12    38 1   
@<TRIPOS>SUBSTRUCTURE
     1 UNL         1 TEMP              0 ****  ****    0 ROOT