@<TRIPOS>MOLECULE
*****
 5 4 0 0 0
SMALL
GASTEIGER

@<TRIPOS>ATOM
      1 O           0.9598   -0.0277   -0.0400 O.2     1  UNL1       -0.3462
      2 S           2.4606   -0.0503    0.0882 S.3     1  UNL1       -0.0904
      3 O           3.1481   -1.3225   -0.3259 O.2     1  UNL1       -0.3462
      4 O           3.0347    1.0832   -0.9479 O.3     1  UNL1       -0.4102
      5 H           3.9305    0.7640   -1.1883 H       1  UNL1        0.1931
@<TRIPOS>UNITY_ATOM_ATTR
2 1
charge -1
@<TRIPOS>BOND
     1     1     2    2
     2     2     3    2
     3     2     4    1
     4     4     5    1
