@<TRIPOS>MOLECULE
*****
    5     4     1     0     0
SMALL
bcc


@<TRIPOS>ATOM
      1 O            0.9600    -0.0280    -0.0400 o          1 UNL      -0.565400
      2 S            2.4610    -0.0500     0.0880 s4         1 UNL       0.425600
      3 O1           3.1480    -1.3230    -0.3260 o          1 UNL      -0.565400
      4 O2           3.0350     1.0830    -0.9480 oh         1 UNL      -0.684800
      5 H            3.9300     0.7640    -1.1880 ho         1 UNL       0.389000
@<TRIPOS>BOND
     1     1     2 1   
     2     2     3 1   
     3     2     4 1   
     4     4     5 1   
@<TRIPOS>SUBSTRUCTURE
     1 UNL         1 TEMP              0 ****  ****    0 ROOT
